<?xml version="1.0" encoding="UTF-8"?>

<!-- generated on 2024-01-23 02:25:35 by Eclipse SUMO netedit Version 1.9.2
<configuration xmlns:xsi="http://www.w3.org/2001/XMLSchema-instance" xsi:noNamespaceSchemaLocation="http://sumo.dlr.de/xsd/netconvertConfiguration.xsd">

    <input>
        <sumo-net-file value="E:\Dumbo\SUMO\try\FT\0108.net.xml"/>
    </input>

    <output>
        <output-file value="E:\Dumbo\SUMO\try\FT\0108.net.xml"/>
    </output>

    <processing>
        <geometry.min-radius.fix.railways value="false"/>
        <geometry.max-grade.fix value="false"/>
        <offset.disable-normalization value="true"/>
        <lefthand value="false"/>
    </processing>

    <junctions>
        <no-turnarounds value="true"/>
        <junctions.corner-detail value="5"/>
        <junctions.limit-turn-speed value="5.5"/>
        <rectangular-lane-cut value="false"/>
    </junctions>

    <pedestrian>
        <walkingareas value="false"/>
    </pedestrian>

    <report>
        <aggregate-warnings value="5"/>
    </report>

</configuration>
-->

<net version="1.9" junctionCornerDetail="5" limitTurnSpeed="5.50" xmlns:xsi="http://www.w3.org/2001/XMLSchema-instance" xsi:noNamespaceSchemaLocation="http://sumo.dlr.de/xsd/net_file.xsd">

    <location netOffset="0.00,0.00" convBoundary="-500.00,399.05,800.00,603.91" origBoundary="-10000000000.00,-10000000000.00,10000000000.00,10000000000.00" projParameter="!"/>

    <edge id=":gneJ10_0" function="internal">
        <lane id=":gneJ10_0_0" index="0" speed="6.51" length="9.03" shape="698.40,513.60 698.05,511.15 697.00,509.40 695.25,508.35 692.80,508.00"/>
    </edge>
    <edge id=":gneJ10_1" function="internal">
        <lane id=":gneJ10_1_0" index="0" speed="19.50" length="27.20" shape="698.40,513.60 698.40,486.40"/>
    </edge>
    <edge id=":gneJ10_2" function="internal">
        <lane id=":gneJ10_2_0" index="0" speed="9.32" length="9.87" shape="698.40,513.60 698.95,506.95 700.00,503.93"/>
    </edge>
    <edge id=":gneJ10_16" function="internal">
        <lane id=":gneJ10_16_0" index="0" speed="9.32" length="9.75" shape="700.00,503.93 700.60,502.20 703.35,499.35 707.20,498.40"/>
    </edge>
    <edge id=":gneJ10_3" function="internal">
        <lane id=":gneJ10_3_0" index="0" speed="6.51" length="9.03" shape="707.20,508.00 704.75,508.35 703.00,509.40 701.95,511.15 701.60,513.60"/>
    </edge>
    <edge id=":gneJ10_4" function="internal">
        <lane id=":gneJ10_4_0" index="0" speed="19.50" length="14.40" shape="707.20,508.00 692.80,508.00"/>
        <lane id=":gneJ10_4_1" index="1" speed="19.50" length="14.40" shape="707.20,504.80 692.80,504.80"/>
        <lane id=":gneJ10_4_2" index="2" speed="19.50" length="14.40" shape="707.20,501.60 692.80,501.60"/>
    </edge>
    <edge id=":gneJ10_7" function="internal">
        <lane id=":gneJ10_7_0" index="0" speed="9.32" length="4.87" shape="707.20,501.60 703.35,500.65 702.72,500.00"/>
    </edge>
    <edge id=":gneJ10_17" function="internal">
        <lane id=":gneJ10_17_0" index="0" speed="9.32" length="14.76" shape="702.72,500.00 700.60,497.80 698.95,493.05 698.40,486.40"/>
    </edge>
    <edge id=":gneJ10_8" function="internal">
        <lane id=":gneJ10_8_0" index="0" speed="6.51" length="9.03" shape="701.60,486.40 701.95,488.85 703.00,490.60 704.75,491.65 707.20,492.00"/>
    </edge>
    <edge id=":gneJ10_9" function="internal">
        <lane id=":gneJ10_9_0" index="0" speed="19.50" length="27.20" shape="701.60,486.40 701.60,513.60"/>
    </edge>
    <edge id=":gneJ10_10" function="internal">
        <lane id=":gneJ10_10_0" index="0" speed="9.32" length="9.87" shape="701.60,486.40 701.05,493.05 700.00,496.07"/>
    </edge>
    <edge id=":gneJ10_18" function="internal">
        <lane id=":gneJ10_18_0" index="0" speed="9.32" length="9.75" shape="700.00,496.07 699.40,497.80 696.65,500.65 692.80,501.60"/>
    </edge>
    <edge id=":gneJ10_11" function="internal">
        <lane id=":gneJ10_11_0" index="0" speed="6.51" length="9.03" shape="692.80,492.00 695.25,491.65 697.00,490.60 698.05,488.85 698.40,486.40"/>
    </edge>
    <edge id=":gneJ10_12" function="internal">
        <lane id=":gneJ10_12_0" index="0" speed="19.50" length="14.40" shape="692.80,492.00 707.20,492.00"/>
        <lane id=":gneJ10_12_1" index="1" speed="19.50" length="14.40" shape="692.80,495.20 707.20,495.20"/>
        <lane id=":gneJ10_12_2" index="2" speed="19.50" length="14.40" shape="692.80,498.40 707.20,498.40"/>
    </edge>
    <edge id=":gneJ10_15" function="internal">
        <lane id=":gneJ10_15_0" index="0" speed="9.32" length="4.87" shape="692.80,498.40 696.65,499.35 697.28,500.00"/>
    </edge>
    <edge id=":gneJ10_19" function="internal">
        <lane id=":gneJ10_19_0" index="0" speed="9.32" length="14.76" shape="697.28,500.00 699.40,502.20 701.05,506.95 701.60,513.60"/>
    </edge>
    <edge id=":gneJ15_0" function="internal">
        <lane id=":gneJ15_0_0" index="0" speed="16.70" length="8.54" shape="-404.80,579.09 -405.30,576.63 -406.40,575.09 -407.50,573.55 -408.00,571.09"/>
        <lane id=":gneJ15_0_1" index="1" speed="16.70" length="8.54" shape="-401.60,579.09 -402.10,576.63 -403.20,575.09 -404.30,573.55 -404.80,571.09"/>
        <lane id=":gneJ15_0_2" index="2" speed="16.70" length="8.54" shape="-401.60,579.09 -401.60,571.09"/>
    </edge>
    <edge id=":gneJ15_3" function="internal">
        <lane id=":gneJ15_3_0" index="0" speed="16.70" length="8.00" shape="-395.20,571.09 -395.20,579.09"/>
        <lane id=":gneJ15_3_1" index="1" speed="16.70" length="8.00" shape="-398.40,571.09 -398.40,579.09"/>
    </edge>
    <edge id=":gneJ16_0" function="internal">
        <lane id=":gneJ16_0_0" index="0" speed="16.70" length="8.60" shape="-408.00,435.86 -408.50,433.40 -409.60,431.86 -410.70,430.32 -411.20,427.86"/>
        <lane id=":gneJ16_0_1" index="1" speed="16.70" length="8.60" shape="-404.80,435.86 -405.30,433.40 -406.40,431.86 -407.50,430.32 -408.00,427.86"/>
        <lane id=":gneJ16_0_2" index="2" speed="16.70" length="8.60" shape="-401.60,435.86 -402.10,433.40 -403.20,431.86 -404.30,430.32 -404.80,427.86"/>
        <lane id=":gneJ16_0_3" index="3" speed="16.70" length="8.60" shape="-401.60,435.86 -401.60,427.86"/>
    </edge>
    <edge id=":gneJ16_4" function="internal">
        <lane id=":gneJ16_4_0" index="0" speed="16.70" length="8.60" shape="-392.00,427.86 -391.50,430.32 -390.40,431.86 -389.30,433.40 -388.80,435.86"/>
        <lane id=":gneJ16_4_1" index="1" speed="16.70" length="8.60" shape="-395.20,427.86 -394.70,430.32 -393.60,431.86 -392.50,433.40 -392.00,435.86"/>
        <lane id=":gneJ16_4_2" index="2" speed="16.70" length="8.60" shape="-398.40,427.86 -397.90,430.32 -396.80,431.86 -395.70,433.40 -395.20,435.86"/>
        <lane id=":gneJ16_4_3" index="3" speed="16.70" length="8.60" shape="-398.40,427.86 -398.40,435.86"/>
    </edge>
    <edge id=":gneJ19_0" function="internal">
        <lane id=":gneJ19_0_0" index="0" speed="16.70" length="8.01" shape="77.20,550.07 77.19,558.08"/>
    </edge>
    <edge id=":gneJ19_1" function="internal">
        <lane id=":gneJ19_1_0" index="0" speed="16.70" length="8.40" shape="73.99,558.07 73.50,555.61 72.40,554.07 71.30,552.53 70.80,550.07"/>
        <lane id=":gneJ19_1_1" index="1" speed="16.70" length="8.40" shape="73.99,558.07 74.00,550.07"/>
    </edge>
    <edge id=":gneJ28_0" function="internal">
        <lane id=":gneJ28_0_0" index="0" speed="16.70" length="8.03" shape="559.32,570.32 559.28,578.37"/>
        <lane id=":gneJ28_0_1" index="1" speed="16.70" length="8.03" shape="556.12,570.32 556.08,578.34"/>
    </edge>
    <edge id=":gneJ28_2" function="internal">
        <lane id=":gneJ28_2_0" index="0" speed="16.70" length="8.51" shape="549.68,578.28 549.21,575.83 548.12,574.30 547.02,572.77 546.52,570.32"/>
        <lane id=":gneJ28_2_1" index="1" speed="16.70" length="8.51" shape="552.88,578.31 552.41,575.85 551.32,574.32 550.22,572.78 549.72,570.32"/>
        <lane id=":gneJ28_2_2" index="2" speed="16.70" length="8.51" shape="552.88,578.31 552.92,570.32"/>
    </edge>
    <edge id=":gneJ29_0" function="internal">
        <lane id=":gneJ29_0_0" index="0" speed="16.70" length="8.54" shape="559.43,454.10 559.92,456.56 561.02,458.10 562.12,459.64 562.61,462.11"/>
        <lane id=":gneJ29_0_1" index="1" speed="16.70" length="8.54" shape="556.23,454.09 556.72,456.56 557.82,458.10 558.92,459.64 559.41,462.10"/>
        <lane id=":gneJ29_0_2" index="2" speed="16.70" length="8.54" shape="556.23,454.09 556.21,462.09"/>
    </edge>
    <edge id=":gneJ29_3" function="internal">
        <lane id=":gneJ29_3_0" index="0" speed="16.70" length="8.00" shape="549.81,462.08 549.83,454.08"/>
        <lane id=":gneJ29_3_1" index="1" speed="16.70" length="8.00" shape="553.01,462.09 553.03,454.09"/>
    </edge>
    <edge id=":gneJ38_0" function="internal">
        <lane id=":gneJ38_0_0" index="0" speed="19.50" length="8.60" shape="-347.86,508.00 -350.32,508.50 -351.86,509.60 -353.40,510.70 -355.86,511.20"/>
        <lane id=":gneJ38_0_1" index="1" speed="19.50" length="8.60" shape="-347.86,504.80 -350.32,505.30 -351.86,506.40 -353.40,507.50 -355.86,508.00"/>
        <lane id=":gneJ38_0_2" index="2" speed="19.50" length="8.60" shape="-347.86,501.60 -350.32,502.10 -351.86,503.20 -353.40,504.30 -355.86,504.80"/>
        <lane id=":gneJ38_0_3" index="3" speed="19.50" length="8.60" shape="-347.86,501.60 -355.86,501.60"/>
    </edge>
    <edge id=":gneJ39_0" function="internal">
        <lane id=":gneJ39_0_0" index="0" speed="19.50" length="8.60" shape="10.27,492.00 12.73,491.50 14.27,490.40 15.81,489.30 18.27,488.80"/>
        <lane id=":gneJ39_0_1" index="1" speed="19.50" length="8.60" shape="10.27,495.20 12.73,494.70 14.27,493.60 15.81,492.50 18.27,492.00"/>
        <lane id=":gneJ39_0_2" index="2" speed="19.50" length="8.60" shape="10.27,498.40 12.73,497.90 14.27,496.80 15.81,495.70 18.27,495.20"/>
        <lane id=":gneJ39_0_3" index="3" speed="19.50" length="8.60" shape="10.27,498.40 18.27,498.40"/>
    </edge>
    <edge id=":gneJ4_0" function="internal">
        <lane id=":gneJ4_0_0" index="0" speed="7.33" length="11.73" shape="-408.00,516.80 -408.35,512.95 -409.40,510.20 -411.15,508.55 -413.60,508.00"/>
    </edge>
    <edge id=":gneJ4_1" function="internal">
        <lane id=":gneJ4_1_0" index="0" speed="19.50" length="30.40" shape="-408.00,516.80 -408.00,486.40"/>
        <lane id=":gneJ4_1_1" index="1" speed="19.50" length="30.40" shape="-404.80,516.80 -404.80,486.40"/>
    </edge>
    <edge id=":gneJ4_3" function="internal">
        <lane id=":gneJ4_3_0" index="0" speed="11.36" length="29.67" shape="-401.60,516.80 -400.45,508.75 -397.00,503.00 -391.25,499.55 -383.20,498.40"/>
    </edge>
    <edge id=":gneJ4_4" function="internal">
        <lane id=":gneJ4_4_0" index="0" speed="8.10" length="14.57" shape="-383.20,511.20 -388.45,511.55 -392.20,512.60 -394.45,514.35 -395.20,516.80"/>
    </edge>
    <edge id=":gneJ4_5" function="internal">
        <lane id=":gneJ4_5_0" index="0" speed="19.50" length="30.62" shape="-383.20,511.20 -392.29,510.70 -398.51,509.60 -404.67,508.50 -413.60,508.00"/>
        <lane id=":gneJ4_5_1" index="1" speed="19.50" length="30.62" shape="-383.20,508.00 -392.29,507.50 -398.51,506.40 -404.67,505.30 -413.60,504.80"/>
        <lane id=":gneJ4_5_2" index="2" speed="19.50" length="30.62" shape="-383.20,504.80 -392.29,504.30 -398.51,503.20 -404.67,502.10 -413.60,501.60"/>
    </edge>
    <edge id=":gneJ4_8" function="internal">
        <lane id=":gneJ4_8_0" index="0" speed="10.88" length="27.14" shape="-383.20,501.60 -391.25,500.65 -397.00,497.80 -400.45,493.05 -401.60,486.40"/>
    </edge>
    <edge id=":gneJ4_9" function="internal">
        <lane id=":gneJ4_9_0" index="0" speed="6.51" length="9.03" shape="-388.80,486.40 -388.45,488.85 -387.40,490.60 -385.65,491.65 -383.20,492.00"/>
        <lane id=":gneJ4_9_1" index="1" speed="7.33" length="11.73" shape="-388.80,486.40 -388.45,490.25 -387.40,493.00 -385.65,494.65 -383.20,495.20"/>
    </edge>
    <edge id=":gneJ4_11" function="internal">
        <lane id=":gneJ4_11_0" index="0" speed="19.50" length="30.61" shape="-392.00,486.40 -392.50,496.19 -393.60,503.58 -394.70,509.98 -395.20,516.80"/>
        <lane id=":gneJ4_11_1" index="1" speed="19.50" length="30.61" shape="-395.20,486.40 -395.70,496.19 -396.80,503.58 -397.90,509.98 -398.40,516.80"/>
    </edge>
    <edge id=":gneJ4_13" function="internal">
        <lane id=":gneJ4_13_0" index="0" speed="10.36" length="24.51" shape="-398.40,486.40 -399.35,493.05 -402.20,497.80 -406.95,500.65 -413.60,501.60"/>
    </edge>
    <edge id=":gneJ4_14" function="internal">
        <lane id=":gneJ4_14_0" index="0" speed="6.51" length="9.03" shape="-413.60,492.00 -411.15,491.65 -409.40,490.60 -408.35,488.85 -408.00,486.40"/>
        <lane id=":gneJ4_14_1" index="1" speed="7.33" length="11.73" shape="-413.60,492.00 -409.75,491.65 -407.00,490.60 -405.35,488.85 -404.80,486.40"/>
    </edge>
    <edge id=":gneJ4_16" function="internal">
        <lane id=":gneJ4_16_0" index="0" speed="19.50" length="30.47" shape="-413.60,492.00 -383.20,492.00"/>
        <lane id=":gneJ4_16_1" index="1" speed="19.50" length="30.47" shape="-413.60,495.20 -383.20,495.20"/>
        <lane id=":gneJ4_16_2" index="2" speed="19.50" length="30.47" shape="-413.60,495.20 -404.63,495.70 -398.40,496.80 -392.17,497.90 -383.20,498.40"/>
    </edge>
    <edge id=":gneJ4_19" function="internal">
        <lane id=":gneJ4_19_0" index="0" speed="10.88" length="27.14" shape="-413.60,498.40 -406.95,499.55 -402.20,503.00 -399.35,508.75 -398.40,516.80"/>
    </edge>
    <edge id=":gneJ40_0" function="internal">
        <lane id=":gneJ40_0_0" index="0" speed="19.50" length="8.60" shape="109.16,508.00 106.70,508.50 105.16,509.60 103.62,510.70 101.16,511.20"/>
        <lane id=":gneJ40_0_1" index="1" speed="19.50" length="8.60" shape="109.16,504.80 106.70,505.30 105.16,506.40 103.62,507.50 101.16,508.00"/>
        <lane id=":gneJ40_0_2" index="2" speed="19.50" length="8.60" shape="109.16,501.60 106.70,502.10 105.16,503.20 103.62,504.30 101.16,504.80"/>
        <lane id=":gneJ40_0_3" index="3" speed="19.50" length="8.60" shape="109.16,501.60 101.16,501.60"/>
    </edge>
    <edge id=":gneJ5_0" function="internal">
        <lane id=":gneJ5_0_0" index="0" speed="6.51" length="9.03" shape="-201.60,513.60 -201.95,511.15 -203.00,509.40 -204.75,508.35 -207.20,508.00"/>
    </edge>
    <edge id=":gneJ5_1" function="internal">
        <lane id=":gneJ5_1_0" index="0" speed="6.51" length="9.03" shape="-192.80,508.00 -195.25,508.35 -197.00,509.40 -198.05,511.15 -198.40,513.60"/>
    </edge>
    <edge id=":gneJ5_2" function="internal">
        <lane id=":gneJ5_2_0" index="0" speed="19.50" length="14.40" shape="-192.80,508.00 -207.20,508.00"/>
        <lane id=":gneJ5_2_1" index="1" speed="19.50" length="14.40" shape="-192.80,504.80 -207.20,504.80"/>
        <lane id=":gneJ5_2_2" index="2" speed="19.50" length="14.40" shape="-192.80,501.60 -207.20,501.60"/>
    </edge>
    <edge id=":gneJ5_5" function="internal">
        <lane id=":gneJ5_5_0" index="0" speed="19.50" length="14.40" shape="-207.20,492.00 -192.80,492.00"/>
        <lane id=":gneJ5_5_1" index="1" speed="19.50" length="14.40" shape="-207.20,495.20 -192.80,495.20"/>
        <lane id=":gneJ5_5_2" index="2" speed="19.50" length="14.40" shape="-207.20,498.40 -192.80,498.40"/>
    </edge>
    <edge id=":gneJ6_0" function="internal">
        <lane id=":gneJ6_0_0" index="0" speed="7.33" length="11.73" shape="70.80,516.80 70.45,512.95 69.40,510.20 67.65,508.55 65.20,508.00"/>
    </edge>
    <edge id=":gneJ6_1" function="internal">
        <lane id=":gneJ6_1_0" index="0" speed="19.50" length="33.76" shape="70.80,516.80 71.30,508.03 72.40,498.12 73.50,489.15 74.00,483.20"/>
    </edge>
    <edge id=":gneJ6_2" function="internal">
        <lane id=":gneJ6_2_0" index="0" speed="9.94" length="11.88" shape="74.00,516.80 74.55,508.75 75.60,505.09"/>
    </edge>
    <edge id=":gneJ6_16" function="internal">
        <lane id=":gneJ6_16_0" index="0" speed="9.94" length="10.61" shape="75.60,505.09 76.20,503.00 78.95,499.55 82.80,498.40"/>
    </edge>
    <edge id=":gneJ6_3" function="internal">
        <lane id=":gneJ6_3_0" index="0" speed="6.51" length="9.03" shape="82.80,511.20 80.35,511.55 78.60,512.60 77.55,514.35 77.20,516.80"/>
    </edge>
    <edge id=":gneJ6_4" function="internal">
        <lane id=":gneJ6_4_0" index="0" speed="19.50" length="17.85" shape="82.80,508.00 65.20,508.00"/>
        <lane id=":gneJ6_4_1" index="1" speed="19.50" length="17.85" shape="82.80,508.00 77.53,507.50 74.00,506.40 70.47,505.30 65.20,504.80"/>
        <lane id=":gneJ6_4_2" index="2" speed="19.50" length="17.85" shape="82.80,504.80 77.53,504.30 74.00,503.20 70.47,502.10 65.20,501.60"/>
    </edge>
    <edge id=":gneJ6_7" function="internal">
        <lane id=":gneJ6_7_0" index="0" speed="9.94" length="22.48" shape="82.80,501.60 78.95,500.45 76.20,497.00 74.55,491.25 74.00,483.20"/>
    </edge>
    <edge id=":gneJ6_8" function="internal">
        <lane id=":gneJ6_8_0" index="0" speed="7.33" length="11.73" shape="77.20,483.20 77.55,487.05 78.60,489.80 80.35,491.45 82.80,492.00"/>
    </edge>
    <edge id=":gneJ6_9" function="internal">
        <lane id=":gneJ6_9_0" index="0" speed="19.50" length="33.60" shape="77.20,483.20 77.20,516.80"/>
    </edge>
    <edge id=":gneJ6_10" function="internal">
        <lane id=":gneJ6_10_0" index="0" speed="10.41" length="14.26" shape="77.20,483.20 76.45,491.25 74.20,497.00"/>
    </edge>
    <edge id=":gneJ6_17" function="internal">
        <lane id=":gneJ6_17_0" index="0" speed="10.41" length="10.47" shape="74.20,497.00 70.45,500.45 65.20,501.60"/>
    </edge>
    <edge id=":gneJ6_11" function="internal">
        <lane id=":gneJ6_11_0" index="0" speed="7.33" length="11.73" shape="65.20,488.80 69.05,488.45 71.80,487.40 73.45,485.65 74.00,483.20"/>
    </edge>
    <edge id=":gneJ6_12" function="internal">
        <lane id=":gneJ6_12_0" index="0" speed="19.50" length="17.98" shape="65.20,488.80 70.47,489.30 74.00,490.40 77.53,491.50 82.80,492.00"/>
        <lane id=":gneJ6_12_1" index="1" speed="19.50" length="17.98" shape="65.20,492.00 70.47,492.50 74.00,493.60 77.53,494.70 82.80,495.20"/>
        <lane id=":gneJ6_12_2" index="2" speed="19.50" length="17.98" shape="65.20,495.20 70.47,495.70 74.00,496.80 77.53,497.90 82.80,498.40"/>
    </edge>
    <edge id=":gneJ6_15" function="internal">
        <lane id=":gneJ6_15_0" index="0" speed="10.41" length="24.73" shape="65.20,498.40 70.45,499.55 74.20,503.00 76.45,508.75 77.20,516.80"/>
    </edge>
    <edge id=":gneJ7_0" function="internal">
        <lane id=":gneJ7_0_0" index="0" speed="6.51" length="9.03" shape="198.40,513.60 198.05,511.15 197.00,509.40 195.25,508.35 192.80,508.00"/>
    </edge>
    <edge id=":gneJ7_1" function="internal">
        <lane id=":gneJ7_1_0" index="0" speed="19.50" length="27.20" shape="198.40,513.60 198.40,486.40"/>
    </edge>
    <edge id=":gneJ7_2" function="internal">
        <lane id=":gneJ7_2_0" index="0" speed="9.32" length="9.87" shape="198.40,513.60 198.95,506.95 200.00,503.93"/>
    </edge>
    <edge id=":gneJ7_15" function="internal">
        <lane id=":gneJ7_15_0" index="0" speed="9.32" length="9.75" shape="200.00,503.93 200.60,502.20 203.35,499.35 207.20,498.40"/>
    </edge>
    <edge id=":gneJ7_3" function="internal">
        <lane id=":gneJ7_3_0" index="0" speed="6.51" length="9.03" shape="207.20,508.00 204.75,508.35 203.00,509.40 201.95,511.15 201.60,513.60"/>
    </edge>
    <edge id=":gneJ7_4" function="internal">
        <lane id=":gneJ7_4_0" index="0" speed="19.50" length="14.40" shape="207.20,508.00 192.80,508.00"/>
        <lane id=":gneJ7_4_1" index="1" speed="19.50" length="14.40" shape="207.20,504.80 192.80,504.80"/>
        <lane id=":gneJ7_4_2" index="2" speed="19.50" length="14.40" shape="207.20,501.60 192.80,501.60"/>
    </edge>
    <edge id=":gneJ7_7" function="internal">
        <lane id=":gneJ7_7_0" index="0" speed="9.32" length="8.98" shape="207.20,501.60 203.35,500.65 200.60,497.80 200.25,496.80"/>
    </edge>
    <edge id=":gneJ7_16" function="internal">
        <lane id=":gneJ7_16_0" index="0" speed="9.32" length="10.64" shape="200.25,496.80 198.95,493.05 198.40,486.40"/>
    </edge>
    <edge id=":gneJ7_8" function="internal">
        <lane id=":gneJ7_8_0" index="0" speed="6.51" length="9.03" shape="201.60,486.40 201.95,488.85 203.00,490.60 204.75,491.65 207.20,492.00"/>
    </edge>
    <edge id=":gneJ7_9" function="internal">
        <lane id=":gneJ7_9_0" index="0" speed="19.50" length="27.20" shape="201.60,486.40 201.60,513.60"/>
    </edge>
    <edge id=":gneJ7_10" function="internal">
        <lane id=":gneJ7_10_0" index="0" speed="9.32" length="9.87" shape="201.60,486.40 201.05,493.05 200.00,496.07"/>
    </edge>
    <edge id=":gneJ7_17" function="internal">
        <lane id=":gneJ7_17_0" index="0" speed="9.32" length="9.75" shape="200.00,496.07 199.40,497.80 196.65,500.65 192.80,501.60"/>
    </edge>
    <edge id=":gneJ7_11" function="internal">
        <lane id=":gneJ7_11_0" index="0" speed="6.51" length="9.03" shape="192.80,492.00 195.25,491.65 197.00,490.60 198.05,488.85 198.40,486.40"/>
    </edge>
    <edge id=":gneJ7_12" function="internal">
        <lane id=":gneJ7_12_0" index="0" speed="19.50" length="14.40" shape="192.80,492.00 207.20,492.00"/>
        <lane id=":gneJ7_12_1" index="1" speed="19.50" length="14.40" shape="192.80,495.20 207.20,495.20"/>
    </edge>
    <edge id=":gneJ7_14" function="internal">
        <lane id=":gneJ7_14_0" index="0" speed="9.32" length="4.87" shape="192.80,498.40 196.65,499.35 197.28,500.00"/>
    </edge>
    <edge id=":gneJ7_18" function="internal">
        <lane id=":gneJ7_18_0" index="0" speed="9.32" length="14.76" shape="197.28,500.00 199.40,502.20 201.05,506.95 201.60,513.60"/>
    </edge>
    <edge id=":gneJ8_0" function="internal">
        <lane id=":gneJ8_0_0" index="0" speed="6.51" length="9.03" shape="363.47,513.60 363.12,511.15 362.07,509.40 360.32,508.35 357.87,508.00"/>
    </edge>
    <edge id=":gneJ8_1" function="internal">
        <lane id=":gneJ8_1_0" index="0" speed="19.50" length="27.20" shape="363.47,513.60 363.47,486.40"/>
    </edge>
    <edge id=":gneJ8_2" function="internal">
        <lane id=":gneJ8_2_0" index="0" speed="9.32" length="9.87" shape="363.47,513.60 364.02,506.95 365.07,503.93"/>
    </edge>
    <edge id=":gneJ8_16" function="internal">
        <lane id=":gneJ8_16_0" index="0" speed="9.32" length="9.75" shape="365.07,503.93 365.67,502.20 368.42,499.35 372.27,498.40"/>
    </edge>
    <edge id=":gneJ8_3" function="internal">
        <lane id=":gneJ8_3_0" index="0" speed="6.51" length="9.03" shape="372.27,508.00 369.82,508.35 368.07,509.40 367.02,511.15 366.67,513.60"/>
    </edge>
    <edge id=":gneJ8_4" function="internal">
        <lane id=":gneJ8_4_0" index="0" speed="19.50" length="14.40" shape="372.27,508.00 357.87,508.00"/>
        <lane id=":gneJ8_4_1" index="1" speed="19.50" length="14.40" shape="372.27,504.80 357.87,504.80"/>
        <lane id=":gneJ8_4_2" index="2" speed="19.50" length="14.40" shape="372.27,501.60 357.87,501.60"/>
    </edge>
    <edge id=":gneJ8_7" function="internal">
        <lane id=":gneJ8_7_0" index="0" speed="9.32" length="4.87" shape="372.27,501.60 368.42,500.65 367.79,500.00"/>
    </edge>
    <edge id=":gneJ8_17" function="internal">
        <lane id=":gneJ8_17_0" index="0" speed="9.32" length="14.76" shape="367.79,500.00 365.67,497.80 364.02,493.05 363.47,486.40"/>
    </edge>
    <edge id=":gneJ8_8" function="internal">
        <lane id=":gneJ8_8_0" index="0" speed="6.51" length="9.03" shape="366.67,486.40 367.02,488.85 368.07,490.60 369.82,491.65 372.27,492.00"/>
    </edge>
    <edge id=":gneJ8_9" function="internal">
        <lane id=":gneJ8_9_0" index="0" speed="19.50" length="27.20" shape="366.67,486.40 366.67,513.60"/>
    </edge>
    <edge id=":gneJ8_10" function="internal">
        <lane id=":gneJ8_10_0" index="0" speed="9.32" length="9.87" shape="366.67,486.40 366.12,493.05 365.07,496.07"/>
    </edge>
    <edge id=":gneJ8_18" function="internal">
        <lane id=":gneJ8_18_0" index="0" speed="9.32" length="9.75" shape="365.07,496.07 364.47,497.80 361.72,500.65 357.87,501.60"/>
    </edge>
    <edge id=":gneJ8_11" function="internal">
        <lane id=":gneJ8_11_0" index="0" speed="6.51" length="9.03" shape="357.87,492.00 360.32,491.65 362.07,490.60 363.12,488.85 363.47,486.40"/>
    </edge>
    <edge id=":gneJ8_12" function="internal">
        <lane id=":gneJ8_12_0" index="0" speed="19.50" length="14.40" shape="357.87,492.00 372.27,492.00"/>
        <lane id=":gneJ8_12_1" index="1" speed="19.50" length="14.40" shape="357.87,495.20 372.27,495.20"/>
        <lane id=":gneJ8_12_2" index="2" speed="19.50" length="14.40" shape="357.87,498.40 372.27,498.40"/>
    </edge>
    <edge id=":gneJ8_15" function="internal">
        <lane id=":gneJ8_15_0" index="0" speed="9.32" length="4.87" shape="357.87,498.40 361.72,499.35 362.35,500.00"/>
    </edge>
    <edge id=":gneJ8_19" function="internal">
        <lane id=":gneJ8_19_0" index="0" speed="9.32" length="14.76" shape="362.35,500.00 364.47,502.20 366.12,506.95 366.67,513.60"/>
    </edge>
    <edge id=":gneJ9_0" function="internal">
        <lane id=":gneJ9_0_0" index="0" speed="6.51" length="9.03" shape="546.54,513.60 546.19,511.15 545.14,509.40 543.39,508.35 540.94,508.00"/>
        <lane id=":gneJ9_0_1" index="1" speed="7.33" length="11.73" shape="546.54,513.60 546.19,509.75 545.14,507.00 543.39,505.35 540.94,504.80"/>
    </edge>
    <edge id=":gneJ9_2" function="internal">
        <lane id=":gneJ9_2_0" index="0" speed="19.50" length="27.34" shape="549.74,513.60 549.77,486.37"/>
        <lane id=":gneJ9_2_1" index="1" speed="19.50" length="27.34" shape="549.74,513.60 550.24,504.97 551.35,498.60 552.45,492.92 552.97,486.38"/>
    </edge>
    <edge id=":gneJ9_4" function="internal">
        <lane id=":gneJ9_4_0" index="0" speed="10.89" length="27.16" shape="552.94,513.60 553.89,505.55 556.74,499.80 561.50,496.35 568.16,495.20"/>
        <lane id=":gneJ9_4_1" index="1" speed="10.37" length="24.53" shape="552.94,513.60 553.89,506.95 556.74,502.20 561.50,499.35 568.16,498.40"/>
    </edge>
    <edge id=":gneJ9_6" function="internal">
        <lane id=":gneJ9_6_0" index="0" speed="7.33" length="11.75" shape="568.16,508.00 564.30,508.35 561.54,509.40 559.89,511.15 559.34,513.60"/>
    </edge>
    <edge id=":gneJ9_7" function="internal">
        <lane id=":gneJ9_7_0" index="0" speed="19.50" length="27.30" shape="568.16,508.00 540.94,508.00"/>
        <lane id=":gneJ9_7_1" index="1" speed="19.50" length="27.30" shape="568.16,504.80 540.94,504.80"/>
        <lane id=":gneJ9_7_2" index="2" speed="19.50" length="27.30" shape="568.16,504.80 560.05,504.30 554.55,503.20 549.04,502.10 540.94,501.60"/>
    </edge>
    <edge id=":gneJ9_10" function="internal">
        <lane id=":gneJ9_10_0" index="0" speed="10.36" length="24.54" shape="568.16,501.60 561.50,500.65 556.75,497.79 553.90,493.04 552.97,486.38"/>
    </edge>
    <edge id=":gneJ9_11" function="internal">
        <lane id=":gneJ9_11_0" index="0" speed="6.50" length="9.03" shape="562.57,486.40 562.91,488.85 563.96,490.60 565.71,491.65 568.16,492.00"/>
        <lane id=":gneJ9_11_1" index="1" speed="7.32" length="11.73" shape="562.57,486.40 562.91,490.25 563.96,493.00 565.71,494.65 568.16,495.20"/>
    </edge>
    <edge id=":gneJ9_13" function="internal">
        <lane id=":gneJ9_13_0" index="0" speed="19.50" length="27.45" shape="562.57,486.40 562.05,495.02 560.94,501.39 559.84,507.06 559.34,513.60"/>
        <lane id=":gneJ9_13_1" index="1" speed="19.50" length="27.45" shape="559.37,486.39 558.85,495.02 557.74,501.39 556.64,507.06 556.14,513.60"/>
    </edge>
    <edge id=":gneJ9_15" function="internal">
        <lane id=":gneJ9_15_0" index="0" speed="10.90" length="27.16" shape="556.17,486.38 555.20,494.44 552.34,500.20 547.59,503.65 540.94,504.80"/>
        <lane id=":gneJ9_15_1" index="1" speed="10.38" length="24.54" shape="556.17,486.38 555.20,493.04 552.34,497.80 547.59,500.65 540.94,501.60"/>
    </edge>
    <edge id=":gneJ9_17" function="internal">
        <lane id=":gneJ9_17_0" index="0" speed="7.34" length="11.77" shape="540.94,492.00 544.80,491.65 547.55,490.59 549.21,488.83 549.77,486.37"/>
    </edge>
    <edge id=":gneJ9_18" function="internal">
        <lane id=":gneJ9_18_0" index="0" speed="19.50" length="27.30" shape="540.94,492.00 568.16,492.00"/>
        <lane id=":gneJ9_18_1" index="1" speed="19.50" length="27.30" shape="540.94,495.20 568.16,495.20"/>
        <lane id=":gneJ9_18_2" index="2" speed="19.50" length="27.30" shape="540.94,495.20 549.04,495.70 554.55,496.80 560.05,497.90 568.16,498.40"/>
    </edge>
    <edge id=":gneJ9_21" function="internal">
        <lane id=":gneJ9_21_0" index="0" speed="10.36" length="24.52" shape="540.94,498.40 547.59,499.35 552.34,502.20 555.19,506.95 556.14,513.60"/>
    </edge>

    <edge id="E10" from="gneJ17" to="gneJ5" priority="-1">
        <lane id="E10_0" index="0" speed="19.50" length="86.40" shape="-201.60,600.00 -201.60,513.60"/>
    </edge>
    <edge id="E11" from="gneJ6" to="gneJ20" priority="-1">
        <lane id="E11_0" index="0" speed="19.50" length="82.48" shape="74.00,483.20 74.00,400.72"/>
    </edge>
    <edge id="E12" from="gneJ37" to="gneJ19" priority="-1">
        <lane id="E12_0" index="0" speed="13.89" length="45.84" shape="73.89,603.91 73.99,558.07"/>