<?xml version="1.0" encoding="UTF-8"?>

<!-- generated on 2024-01-08 22:03:11 by Eclipse SUMO GUI Version 1.9.2
-->

<configuration xmlns:xsi="http://www.w3.org/2001/XMLSchema-instance" xsi:noNamespaceSchemaLocation="http://sumo.dlr.de/xsd/sumoConfiguration.xsd">

    <input>
        <net-file value="0108.net.xml"/>
		<route-files value="0108.rou.xml"/>
	
		
    </input>

	<time>
		<begin value="0"/>
		<end value="3600"/>
	</time>
    




</configuration>
