<routes xmlns:xsi="http://www.w3.org/2001/XMLSchema-instance" xsi:noNamespaceSchemaLocation="http://sumo.dlr.de/xsd/routes_file.xsd">
    <vType id="SUMO_DEFAULT_TYPE" accel="0.8" decel="4.5" sigma="0" length="4" minGap="1.5" maxSpeed="43.5"/>
    <!--往北車輛-->
	<route id="S7_STRAIGHT" edges="N7 N6 N5 N4 N3 N31 N2 N1 N11 N0"/><!--直走-->
	<route id="S7_LEFT" edges="N7 E19"/><!--第七個路口左轉-->
	<route id="S7_RIGHT" edges="N7 W20"/><!--第七個路口右轉-->
	<route id="S6_LEFT" edges="N7 N6 E171 E17"/><!--第六個路口左轉-->
	<route id="S6_RIGHT" edges="N7 N6 W181 W18"/><!--第六個路口右轉-->
	<route id="S5_LEFT" edges="N7 N6 N5 E15"/><!--第五個路口左轉-->
	<route id="S5_RIGHT" edges="N7 N6 N5 W16"/><!--第五個路口右轉-->
	<route id="S4_LEFT" edges="N7 N6 N5 N4 E13"/><!--第四個路口左轉-->
	<route id="S4_RIGHT" edges="N7 N6 N5 N4 W14"/><!--第四個路口右轉-->
	<route id="S3_LEFT" edges="N7 N6 N5 N4 N3 N31 E11"/><!--第三個路口左轉-->
	<route id="S3_RIGHT" edges="N7 N6 N5 N4 N3 N31 W121 W12"/><!--第三個路口右轉-->
	<route id="S2_RIGHT" edges="N7 N6 N5 N4 N3 N31 N2 W10"/><!--第二個路口右轉-->	
	<route id="S1_LEFT" edges="N7 N6 N5 N4 N3 N31 N2 N1 N11 E81 E8"/><!--第一個路口左轉-->
	<route id="S1_RIGHT" edges="N7 N6 N5 N4 N3 N31 N2 N1 N11 W91 W9"/><!--第一個路口右轉-->
	
	<!--往南車輛-->
	<route id="N1_STRAIGHT" edges="S0 S1 S2 S21 S3 S4 S5 S6 S7"/><!--直走-->
	<route id="N1_LEFT" edges="S0 W91 W9"/><!--第一個路口左轉-->
	<route id="N1_RIGHT" edges="S0 E81 E8"/><!--第一個路口右轉-->
	<route id="N3_LEFT" edges="S0 S1 S2 S21 W121 W12"/><!--第三個路口左轉-->
	<route id="N3_RIGHT" edges="S0 S1 S2 S21 E11"/><!--第三個路口右轉-->
    <route id="N4_LEFT" edges="S0 S1 S2 S21 S3 W14"/><!--第四個路口左轉-->
	<route id="N4_RIGHT" edges="S0 S1 S2 S21 S3 E13"/><!--第四個路口右轉-->
	<route id="N5_LEFT" edges="S0 S1 S2 S21 S3 S4 W16"/><!--第五個路口左轉-->
	<route id="N5_RIGHT" edges="S0 S1 S2 S21 S3 S4 E15"/><!--第五個路口右轉-->
	<route id="N6_LEFT" edges="S0 S1 S2 S21 S3 S4 S5 W181 W18"/><!--第六個路口左轉-->
	<route id="N6_RIGHT" edges="S0 S1 S2 S21 S3 S4 S5 E171 E17"/><!--第六個路口右轉-->
	<route id="N7_LEFT" edges="S0 S1 S2 S21 S3 S4 S5 S6 W20"/><!--第七個路口左轉-->
	<route id="N7_RIGHT" edges="S0 S1 S2 S21 S3 S4 S5 S6 E19"/><!--第七個路口右轉-->

	<!--往西車輛-->
	<route id="E1_STRAIGHT" edges="E9 E91 E81 E8"/><!--第一個路口直走-->
	<route id="E1_LEFT" edges="E9 E91 S1 S2 S21 S3 S4 S5 S6 S7"/><!--第一個路口左轉-->
	<route id="E1_RIGHT" edges="E9 E91 N0"/><!--第一個路口右轉-->
	<route id="E2_RIGHT" edges="E10 N1 N11 N0"/><!--第二個路口右轉-->
	<route id="E3_STRAIGHT" edges="E12 E121 E11"/><!--第三個路口直走-->
	<route id="E3_LEFT" edges="E12 E121 S3 S4 S5 S6 S7"/><!--第三個路口左轉-->
	<route id="E3_RIGHT" edges="E12 E121 N2 N1 N11 N0"/><!--第三個路口右轉-->
	<route id="E4_STRAIGHT" edges="E14 E13"/><!--第四個路口直走-->
	<route id="E4_LEFT" edges="E14 S4 S5 S6 S7"/><!--第四個路口左轉-->
	<route id="E4_RIGHT" edges="E14 N3 N31 N2 N1 N11 N0"/><!--第四個路口右轉-->
	<route id="E5_STRAIGHT" edges="E16 E15"/><!--第五個路口直走-->
	<route id="E5_LEFT" edges="E16 S5 S6 S7"/><!--第五個路口左轉-->
	<route id="E5_RIGHT" edges="E16 N4 N3 N31 N2 N1 N11 N0"/><!--第五個路口右轉-->
	<route id="E6_STRAIGHT" edges="E18 E181 E171 E17"/><!--第六個路口直走-->
	<route id="E6_LEFT" edges="E18 E181 S6 S7"/><!--第六個路口左轉-->
	<route id="E6_RIGHT" edges="E18 E181 N5 N4 N3 N31 N2 N1 N11 N0"/><!--第六個路口右轉-->
	<route id="E7_STRAIGHT" edges="E20 E19"/><!--第七個路口直走-->
	<route id="E7_LEFT" edges="E20 S7"/><!--第七個路口左轉-->
	<route id="E7_RIGHT" edges="E20 N6 N5 N4 N3 N31 N2 N1 N11 N0"/><!--第七個路口右轉-->

	<!--往東車輛-->
	<route id="W1_STRAIGHT" edges="W8 W81 W91 W9"/><!--第一個路口直走-->
	<route id="W1_LEFT" edges="W8 W81 N0"/><!--第一個路口左轉-->
	<route id="W1_RIGHT" edges="W8 W81 S1 S2 S21 S3 S4 S5 S6 S7"/><!--第一個路口右轉-->
    <route id="W3_STRAIGHT" edges="W11 W121 W12"/><!--第三個路口直走-->
	<route id="W3_LEFT" edges="W11 N2 N1 N11 N0"/><!--第三個路口左轉-->
	<route id="W3_RIGHT" edges="W11 S3 S4 S5 S6 S7"/><!--第三個路口右轉-->
	<route id="W4_STRAIGHT" edges="W13 W14"/><!--第四個路口直走-->
	<route id="W4_LEFT" edges="W13 N3 N31 N2 N1 N11 N0"/><!--第四個路口左轉-->
	<route id="W4_RIGHT" edges="W13 S4 S5 S6 S7"/><!--第四個路口右轉-->
	<route id="W5_STRAIGHT" edges="W15 W16"/><!--第五個路口直走-->
	<route id="W5_LEFT" edges="W15 N4 N3 N31 N2 N1 N11 N0"/><!--第五個路口左轉-->
	<route id="W5_RIGHT" edges="W15 S5 S6 S7"/><!--第五個路口右轉-->
	<route id="W6_STRAIGHT" edges="W17 W171 W181 W18"/><!--第六個路口直走-->
	<route id="W6_LEFT" edges="W17 W171 N5 N4 N3 N31 N2 N1 N11 N0"/><!--第六個路口左轉-->
	<route id="W6_RIGHT" edges="W17 W171 S6 S7"/><!--第六個路口右轉-->
	<route id="W7_STRAIGHT" edges="W19 W20"/><!--第七個路口直走-->
	<route id="W7_LEFT" edges="W19 N6 N5 N4 N3 N31 N2 N1 N11 N0"/><!--第七個路口左轉-->
	<route id="W7_RIGHT" edges="W19 S7"/><!--第七個路口右轉-->
   
    
    
    <vehicle id="S1_RIGHT_0" type="SUMO_DEFAULT_TYPE" route="S1_RIGHT" departLane="0" departSpeed="10" depart="0" />
    <vehicle id="W1_RIGHT_1" type="SUMO_DEFAULT_TYPE" route="W1_RIGHT" departLane="0" departSpeed="10" depart="0" color="1,0,0" />
    <vehicle id="S5_LEFT_2" type="SUMO_DEFAULT_TYPE" route="S5_LEFT" departLane="1" departSpeed="10" depart="1" color="0,0,255"/>
    <vehicle id="N3_LEFT_3" type="SUMO_DEFAULT_TYPE" route="N3_LEFT" departLane="1" departSpeed="10" depart="1" color="0,0,255"/>
    <vehicle id="N3_RIGHT_4" type="SUMO_DEFAULT_TYPE" route="N3_RIGHT" departLane="0" departSpeed="10" depart="1" />
    <vehicle id="S4_RIGHT_5" type="SUMO_DEFAULT_TYPE" route="S4_RIGHT" departLane="0" departSpeed="10" depart="2" />
    <vehicle id="S3_RIGHT_6" type="SUMO_DEFAULT_TYPE" route="S3_RIGHT" departLane="0" departSpeed="10" depart="2" />
    <vehicle id="S7_RIGHT_7" type="SUMO_DEFAULT_TYPE" route="S7_RIGHT" departLane="0" departSpeed="10" depart="3" />
    <vehicle id="N5_RIGHT_8" type="SUMO_DEFAULT_TYPE" route="N5_RIGHT" departLane="0" departSpeed="10" depart="3" />
    <vehicle id="E1_STRAIGHT_9" type="SUMO_DEFAULT_TYPE" route="E1_STRAIGHT" departLane="random" departSpeed="10" depart="3" />
    <vehicle id="W1_STRAIGHT_10" type="SUMO_DEFAULT_TYPE" route="W1_STRAIGHT" departLane="random" departSpeed="10" depart="3" />
    <vehicle id="N5_RIGHT_11" type="SUMO_DEFAULT_TYPE" route="N5_RIGHT" departLane="0" departSpeed="10" depart="4" />
    <vehicle id="S7_STRAIGHT_12" type="SUMO_DEFAULT_TYPE" route="S7_STRAIGHT" departLane="free" departSpeed="10" depart="5" color="1,0,0"/>
    <vehicle id="S3_RIGHT_13" type="SUMO_DEFAULT_TYPE" route="S3_RIGHT" departLane="0" departSpeed="10" depart="5" />
    <vehicle id="N1_STRAIGHT_14" type="SUMO_DEFAULT_TYPE" route="N1_STRAIGHT" departLane="free" departSpeed="10" depart="5" color="1,0,0"/>
    <vehicle id="N6_RIGHT_15" type="SUMO_DEFAULT_TYPE" route="N6_RIGHT" departLane="0" departSpeed="10" depart="5" />
    <vehicle id="S7_STRAIGHT_16" type="SUMO_DEFAULT_TYPE" route="S7_STRAIGHT" departLane="free" departSpeed="10" depart="6" color="1,0,0"/>
    <vehicle id="S4_LEFT_17" type="SUMO_DEFAULT_TYPE" route="S4_LEFT" departLane="1" departSpeed="10" depart="6" color="0,0,255"/>
    <vehicle id="E5_STRAIGHT_18" type="SUMO_DEFAULT_TYPE" route="E5_STRAIGHT" departLane="random" departSpeed="10" depart="6" />
    <vehicle id="E6_STRAIGHT_19" type="SUMO_DEFAULT_TYPE" route="E6_STRAIGHT" departLane="random" departSpeed="10" depart="6" />
    <vehicle id="S1_LEFT_20" type="SUMO_DEFAULT_TYPE" route="S1_LEFT" departLane="1" departSpeed="10" depart="7" color="0,0,255"/>
    <vehicle id="N6_LEFT_21" type="SUMO_DEFAULT_TYPE" route="N6_LEFT" departLane="1" departSpeed="10" depart="7" color="0,0,255"/>
    <vehicle id="E6_STRAIGHT_22" type="SUMO_DEFAULT_TYPE" route="E6_STRAIGHT" departLane="random" departSpeed="10" depart="7" />
    <vehicle id="S4_RIGHT_23" type="SUMO_DEFAULT_TYPE" route="S4_RIGHT" departLane="0" departSpeed="10" depart="8" />
    <vehicle id="N1_STRAIGHT_24" type="SUMO_DEFAULT_TYPE" route="N1_STRAIGHT" departLane="free" departSpeed="10" depart="8" color="1,0,0"/>
    <vehicle id="N1_STRAIGHT_25" type="SUMO_DEFAULT_TYPE" route="N1_STRAIGHT" departLane="free" departSpeed="10" depart="9" color="1,0,0"/>
    <vehicle id="N3_RIGHT_26" type="SUMO_DEFAULT_TYPE" route="N3_RIGHT" departLane="0" departSpeed="10" depart="9" />
    <vehicle id="S7_STRAIGHT_27" type="SUMO_DEFAULT_TYPE" route="S7_STRAIGHT" departLane="free" departSpeed="10" depart="10" color="1,0,0"/>
    <vehicle id="S7_RIGHT_28" type="SUMO_DEFAULT_TYPE" route="S7_RIGHT" departLane="0" departSpeed="10" depart="10" />
    <vehicle id="S5_RIGHT_29" type="SUMO_DEFAULT_TYPE" route="S5_RIGHT" departLane="0" departSpeed="10" depart="10" />
    <vehicle id="N6_RIGHT_30" type="SUMO_DEFAULT_TYPE" route="N6_RIGHT" departLane="0" departSpeed="10" depart="10" />
    <vehicle id="S2_RIGHT_31" type="SUMO_DEFAULT_TYPE" route="S2_RIGHT" departLane="0" departSpeed="10" depart="12" />
    <vehicle id="N7_LEFT_32" type="SUMO_DEFAULT_TYPE" route="N7_LEFT" departLane="1" departSpeed="10" depart="12" color="0,0,255"/>
    <vehicle id="W6_STRAIGHT_33" type="SUMO_DEFAULT_TYPE" route="W6_STRAIGHT" departLane="random" departSpeed="10" depart="12" />
    <vehicle id="W1_RIGHT_34" type="SUMO_DEFAULT_TYPE" route="W1_RIGHT" departLane="0" departSpeed="10" depart="14" color="1,0,0" />
    <vehicle id="N4_LEFT_35" type="SUMO_DEFAULT_TYPE" route="N4_LEFT" departLane="1" departSpeed="10" depart="15" color="0,0,255"/>
    <vehicle id="E6_LEFT_36" type="SUMO_DEFAULT_TYPE" route="E6_LEFT" departLane="random" departSpeed="10" depart="15" color="1,0,0" />
    <vehicle id="S7_STRAIGHT_37" type="SUMO_DEFAULT_TYPE" route="S7_STRAIGHT" departLane="free" departSpeed="10" depart="16" color="1,0,0"/>
    <vehicle id="S7_LEFT_38" type="SUMO_DEFAULT_TYPE" route="S7_LEFT" departLane="1" departSpeed="10" depart="16" color="0,0,255"/>
    <vehicle id="S5_LEFT_39" type="SUMO_DEFAULT_TYPE" route="S5_LEFT" departLane="1" departSpeed="10" depart="17" color="0,0,255"/>
    <vehicle id="N4_LEFT_40" type="SUMO_DEFAULT_TYPE" route="N4_LEFT" departLane="1" departSpeed="10" depart="17" color="0,0,255"/>
    <vehicle id="N5_LEFT_41" type="SUMO_DEFAULT_TYPE" route="N5_LEFT" departLane="1" departSpeed="10" depart="17" color="0,0,255"/>
    <vehicle id="N6_LEFT_42" type="SUMO_DEFAULT_TYPE" route="N6_LEFT" departLane="1" departSpeed="10" depart="17" color="0,0,255"/>
    <vehicle id="N6_RIGHT_43" type="SUMO_DEFAULT_TYPE" route="N6_RIGHT" departLane="0" departSpeed="10" depart="17" />
    <vehicle id="S6_LEFT_44" type="SUMO_DEFAULT_TYPE" route="S6_LEFT" departLane="1" departSpeed="10" depart="18" color="0,0,255"/>
    <vehicle id="W1_STRAIGHT_45" type="SUMO_DEFAULT_TYPE" route="W1_STRAIGHT" departLane="random" departSpeed="10" depart="18" />
    <vehicle id="S1_RIGHT_46" type="SUMO_DEFAULT_TYPE" route="S1_RIGHT" departLane="0" departSpeed="10" depart="19" />
    <vehicle id="N7_LEFT_47" type="SUMO_DEFAULT_TYPE" route="N7_LEFT" departLane="1" departSpeed="10" depart="20" color="0,0,255"/>
    <vehicle id="W1_STRAIGHT_48" type="SUMO_DEFAULT_TYPE" route="W1_STRAIGHT" departLane="random" departSpeed="10" depart="20" />
    <vehicle id="S6_RIGHT_49" type="SUMO_DEFAULT_TYPE" route="S6_RIGHT" departLane="0" departSpeed="10" depart="21" />
    <vehicle id="S1_LEFT_50" type="SUMO_DEFAULT_TYPE" route="S1_LEFT" departLane="1" departSpeed="10" depart="21" color="0,0,255"/>
    <vehicle id="S7_LEFT_51" type="SUMO_DEFAULT_TYPE" route="S7_LEFT" departLane="1" departSpeed="10" depart="22" color="0,0,255"/>
    <vehicle id="N1_STRAIGHT_52" type="SUMO_DEFAULT_TYPE" route="N1_STRAIGHT" departLane="free" departSpeed="10" depart="22" color="1,0,0"/>
    <vehicle id="E1_STRAIGHT_53" type="SUMO_DEFAULT_TYPE" route="E1_STRAIGHT" departLane="random" departSpeed="10" depart="22" />
    <vehicle id="S7_STRAIGHT_54" type="SUMO_DEFAULT_TYPE" route="S7_STRAIGHT" departLane="free" departSpeed="10" depart="23" color="1,0,0"/>
    <vehicle id="N4_RIGHT_55" type="SUMO_DEFAULT_TYPE" route="N4_RIGHT" departLane="0" departSpeed="10" depart="23" />
    <vehicle id="N5_RIGHT_56" type="SUMO_DEFAULT_TYPE" route="N5_RIGHT" departLane="0" departSpeed="10" depart="23" />
    <vehicle id="N7_LEFT_57" type="SUMO_DEFAULT_TYPE" route="N7_LEFT" departLane="1" departSpeed="10" depart="23" color="0,0,255"/>
    <vehicle id="S1_RIGHT_58" type="SUMO_DEFAULT_TYPE" route="S1_RIGHT" departLane="0" departSpeed="10" depart="24" />
    <vehicle id="E1_STRAIGHT_59" type="SUMO_DEFAULT_TYPE" route="E1_STRAIGHT" departLane="random" departSpeed="10" depart="24" />
    <vehicle id="E3_STRAIGHT_60" type="SUMO_DEFAULT_TYPE" route="E3_STRAIGHT" departLane="random" departSpeed="10" depart="24" />
    <vehicle id="S4_LEFT_61" type="SUMO_DEFAULT_TYPE" route="S4_LEFT" departLane="1" departSpeed="10" depart="25" color="0,0,255"/>
    <vehicle id="S1_LEFT_62" type="SUMO_DEFAULT_TYPE" route="S1_LEFT" departLane="1" departSpeed="10" depart="25" color="0,0,255"/>
    <vehicle id="N6_LEFT_63" type="SUMO_DEFAULT_TYPE" route="N6_LEFT" departLane="1" departSpeed="10" depart="25" color="0,0,255"/>
    <vehicle id="E6_RIGHT_64" type="SUMO_DEFAULT_TYPE" route="E6_RIGHT" departLane="random" departSpeed="10" depart="25" color="1,0,0" />
    <vehicle id="W1_LEFT_65" type="SUMO_DEFAULT_TYPE" route="W1_LEFT" departLane="1" departSpeed="10" depart="25" color="1,0,0" />
    <vehicle id="S7_LEFT_66" type="SUMO_DEFAULT_TYPE" route="S7_LEFT" departLane="1" departSpeed="10" depart="26" color="0,0,255"/>
    <vehicle id="N1_STRAIGHT_67" type="SUMO_DEFAULT_TYPE" route="N1_STRAIGHT" departLane="free" departSpeed="10" depart="26" color="1,0,0"/>
    <vehicle id="W3_LEFT_68" type="SUMO_DEFAULT_TYPE" route="W3_LEFT" departLane="random" departSpeed="10" depart="27" color="1,0,0" />
    <vehicle id="S1_RIGHT_69" type="SUMO_DEFAULT_TYPE" route="S1_RIGHT" departLane="0" departSpeed="10" depart="28" />
    <vehicle id="N7_RIGHT_70" type="SUMO_DEFAULT_TYPE" route="N7_RIGHT" departLane="0" departSpeed="10" depart="28" />
    <vehicle id="W1_RIGHT_71" type="SUMO_DEFAULT_TYPE" route="W1_RIGHT" departLane="0" departSpeed="10" depart="28" color="1,0,0" />
    <vehicle id="N4_LEFT_72" type="SUMO_DEFAULT_TYPE" route="N4_LEFT" departLane="1" departSpeed="10" depart="29" color="0,0,255"/>
    <vehicle id="E1_STRAIGHT_73" type="SUMO_DEFAULT_TYPE" route="E1_STRAIGHT" departLane="random" departSpeed="10" depart="29" />
    <vehicle id="N1_STRAIGHT_74" type="SUMO_DEFAULT_TYPE" route="N1_STRAIGHT" departLane="free" departSpeed="10" depart="30" color="1,0,0"/>
    <vehicle id="N7_LEFT_75" type="SUMO_DEFAULT_TYPE" route="N7_LEFT" departLane="1" departSpeed="10" depart="30" color="0,0,255"/>
    <vehicle id="S2_RIGHT_76" type="SUMO_DEFAULT_TYPE" route="S2_RIGHT" departLane="0" departSpeed="10" depart="31" />
    <vehicle id="N1_RIGHT_77" type="SUMO_DEFAULT_TYPE" route="N1_RIGHT" departLane="0" departSpeed="10" depart="31" />
    <vehicle id="S7_STRAIGHT_78" type="SUMO_DEFAULT_TYPE" route="S7_STRAIGHT" departLane="free" departSpeed="10" depart="33" color="1,0,0"/>
    <vehicle id="S7_RIGHT_79" type="SUMO_DEFAULT_TYPE" route="S7_RIGHT" departLane="0" departSpeed="10" depart="33" />
    <vehicle id="N7_RIGHT_80" type="SUMO_DEFAULT_TYPE" route="N7_RIGHT" departLane="0" departSpeed="10" depart="33" />
    <vehicle id="E4_STRAIGHT_81" type="SUMO_DEFAULT_TYPE" route="E4_STRAIGHT" departLane="random" departSpeed="10" depart="33" />
    <vehicle id="W5_STRAIGHT_82" type="SUMO_DEFAULT_TYPE" route="W5_STRAIGHT" departLane="random" departSpeed="10" depart="33" />
    <vehicle id="N1_STRAIGHT_83" type="SUMO_DEFAULT_TYPE" route="N1_STRAIGHT" departLane="free" departSpeed="10" depart="34" color="1,0,0"/>
    <vehicle id="N4_RIGHT_84" type="SUMO_DEFAULT_TYPE" route="N4_RIGHT" departLane="0" departSpeed="10" depart="35" />
    <vehicle id="S7_LEFT_85" type="SUMO_DEFAULT_TYPE" route="S7_LEFT" departLane="1" departSpeed="10" depart="36" color="0,0,255"/>
    <vehicle id="N7_LEFT_86" type="SUMO_DEFAULT_TYPE" route="N7_LEFT" departLane="1" departSpeed="10" depart="36" color="0,0,255"/>
    <vehicle id="S1_LEFT_87" type="SUMO_DEFAULT_TYPE" route="S1_LEFT" departLane="1" departSpeed="10" depart="37" color="0,0,255"/>
    <vehicle id="N5_RIGHT_88" type="SUMO_DEFAULT_TYPE" route="N5_RIGHT" departLane="0" departSpeed="10" depart="37" />
    <vehicle id="W7_STRAIGHT_89" type="SUMO_DEFAULT_TYPE" route="W7_STRAIGHT" departLane="random" departSpeed="10" depart="37" />
    <vehicle id="N1_STRAIGHT_90" type="SUMO_DEFAULT_TYPE" route="N1_STRAIGHT" departLane="free" departSpeed="10" depart="38" color="1,0,0"/>
    <vehicle id="E7_STRAIGHT_91" type="SUMO_DEFAULT_TYPE" route="E7_STRAIGHT" departLane="random" departSpeed="10" depart="38" />
    <vehicle id="W1_STRAIGHT_92" type="SUMO_DEFAULT_TYPE" route="W1_STRAIGHT" departLane="random" departSpeed="10" depart="38" />
    <vehicle id="W6_STRAIGHT_93" type="SUMO_DEFAULT_TYPE" route="W6_STRAIGHT" departLane="random" departSpeed="10" depart="38" />
    <vehicle id="S7_LEFT_94" type="SUMO_DEFAULT_TYPE" route="S7_LEFT" departLane="1" departSpeed="10" depart="39" color="0,0,255"/>
    <vehicle id="S6_LEFT_95" type="SUMO_DEFAULT_TYPE" route="S6_LEFT" departLane="1" departSpeed="10" depart="39" color="0,0,255"/>
    <vehicle id="S3_LEFT_96" type="SUMO_DEFAULT_TYPE" route="S3_LEFT" departLane="1" departSpeed="10" depart="39" color="0,0,255"/>
    <vehicle id="N5_RIGHT_97" type="SUMO_DEFAULT_TYPE" route="N5_RIGHT" departLane="0" departSpeed="10" depart="39" />
    <vehicle id="N6_LEFT_98" type="SUMO_DEFAULT_TYPE" route="N6_LEFT" departLane="1" departSpeed="10" depart="39" color="0,0,255"/>
    <vehicle id="N7_RIGHT_99" type="SUMO_DEFAULT_TYPE" route="N7_RIGHT" departLane="0" departSpeed="10" depart="40" />
    <vehicle id="S6_RIGHT_100" type="SUMO_DEFAULT_TYPE" route="S6_RIGHT" departLane="0" departSpeed="10" depart="41" />
    <vehicle id="S5_LEFT_101" type="SUMO_DEFAULT_TYPE" route="S5_LEFT" departLane="1" departSpeed="10" depart="41" color="0,0,255"/>
    <vehicle id="S5_RIGHT_102" type="SUMO_DEFAULT_TYPE" route="S5_RIGHT" departLane="0" departSpeed="10" depart="41" />
    <vehicle id="S2_RIGHT_103" type="SUMO_DEFAULT_TYPE" route="S2_RIGHT" departLane="0" departSpeed="10" depart="41" />
    <vehicle id="N3_RIGHT_104" type="SUMO_DEFAULT_TYPE" route="N3_RIGHT" departLane="0" departSpeed="10" depart="41" />
    <vehicle id="N7_LEFT_105" type="SUMO_DEFAULT_TYPE" route="N7_LEFT" departLane="1" departSpeed="10" depart="41" color="0,0,255"/>
    <vehicle id="S7_RIGHT_106" type="SUMO_DEFAULT_TYPE" route="S7_RIGHT" departLane="0" departSpeed="10" depart="42" />
    <vehicle id="S3_RIGHT_107" type="SUMO_DEFAULT_TYPE" route="S3_RIGHT" departLane="0" departSpeed="10" depart="42" />
    <vehicle id="N4_RIGHT_108" type="SUMO_DEFAULT_TYPE" route="N4_RIGHT" departLane="0" departSpeed="10" depart="42" />
    <vehicle id="N5_LEFT_109" type="SUMO_DEFAULT_TYPE" route="N5_LEFT" departLane="1" departSpeed="10" depart="42" color="0,0,255"/>
    <vehicle id="S7_RIGHT_110" type="SUMO_DEFAULT_TYPE" route="S7_RIGHT" departLane="0" departSpeed="10" depart="43" />
    <vehicle id="N4_RIGHT_111" type="SUMO_DEFAULT_TYPE" route="N4_RIGHT" departLane="0" departSpeed="10" depart="43" />
    <vehicle id="N5_LEFT_112" type="SUMO_DEFAULT_TYPE" route="N5_LEFT" departLane="1" departSpeed="10" depart="43" color="0,0,255"/>
    <vehicle id="E5_STRAIGHT_113" type="SUMO_DEFAULT_TYPE" route="E5_STRAIGHT" departLane="random" departSpeed="10" depart="43" />
    <vehicle id="S5_LEFT_114" type="SUMO_DEFAULT_TYPE" route="S5_LEFT" departLane="1" departSpeed="10" depart="44" color="0,0,255"/>
    <vehicle id="E7_STRAIGHT_115" type="SUMO_DEFAULT_TYPE" route="E7_STRAIGHT" departLane="random" departSpeed="10" depart="44" />
    <vehicle id="N1_RIGHT_116" type="SUMO_DEFAULT_TYPE" route="N1_RIGHT" departLane="0" departSpeed="10" depart="45" />
    <vehicle id="N3_LEFT_117" type="SUMO_DEFAULT_TYPE" route="N3_LEFT" departLane="1" departSpeed="10" depart="45" color="0,0,255"/>
    <vehicle id="N5_RIGHT_118" type="SUMO_DEFAULT_TYPE" route="N5_RIGHT" departLane="0" departSpeed="10" depart="45" />
    <vehicle id="N5_LEFT_119" type="SUMO_DEFAULT_TYPE" route="N5_LEFT" departLane="1" departSpeed="10" depart="47" color="0,0,255"/>
    <vehicle id="W6_STRAIGHT_120" type="SUMO_DEFAULT_TYPE" route="W6_STRAIGHT" departLane="random" departSpeed="10" depart="47" />
    <vehicle id="S7_STRAIGHT_121" type="SUMO_DEFAULT_TYPE" route="S7_STRAIGHT" departLane="free" departSpeed="10" depart="48" color="1,0,0"/>
    <vehicle id="S7_LEFT_122" type="SUMO_DEFAULT_TYPE" route="S7_LEFT" departLane="1" departSpeed="10" depart="48" color="0,0,255"/>
    <vehicle id="S1_LEFT_123" type="SUMO_DEFAULT_TYPE" route="S1_LEFT" departLane="1" departSpeed="10" depart="48" color="0,0,255"/>
    <vehicle id="W5_LEFT_124" type="SUMO_DEFAULT_TYPE" route="W5_LEFT" departLane="random" departSpeed="10" depart="48" color="1,0,0" />
    <vehicle id="S5_LEFT_125" type="SUMO_DEFAULT_TYPE" route="S5_LEFT" departLane="1" departSpeed="10" depart="49" color="0,0,255"/>
    <vehicle id="S5_RIGHT_126" type="SUMO_DEFAULT_TYPE" route="S5_RIGHT" departLane="0" departSpeed="10" depart="49" />
    <vehicle id="S2_RIGHT_127" type="SUMO_DEFAULT_TYPE" route="S2_RIGHT" departLane="0" departSpeed="10" depart="49" />
    <vehicle id="S6_RIGHT_128" type="SUMO_DEFAULT_TYPE" route="S6_RIGHT" departLane="0" departSpeed="10" depart="50" />
    <vehicle id="S5_RIGHT_129" type="SUMO_DEFAULT_TYPE" route="S5_RIGHT" departLane="0" departSpeed="10" depart="50" />
    <vehicle id="S6_LEFT_130" type="SUMO_DEFAULT_TYPE" route="S6_LEFT" departLane="1" departSpeed="10" depart="52" color="0,0,255"/>
    <vehicle id="S1_LEFT_131" type="SUMO_DEFAULT_TYPE" route="S1_LEFT" departLane="1" departSpeed="10" depart="52" color="0,0,255"/>
    <vehicle id="N5_RIGHT_132" type="SUMO_DEFAULT_TYPE" route="N5_RIGHT" departLane="0" departSpeed="10" depart="52" />
    <vehicle id="S7_STRAIGHT_133" type="SUMO_DEFAULT_TYPE" route="S7_STRAIGHT" departLane="free" departSpeed="10" depart="53" color="1,0,0"/>
    <vehicle id="N4_LEFT_134" type="SUMO_DEFAULT_TYPE" route="N4_LEFT" departLane="1" departSpeed="10" depart="53" color="0,0,255"/>
    <vehicle id="E6_STRAIGHT_135" type="SUMO_DEFAULT_TYPE" route="E6_STRAIGHT" departLane="random" departSpeed="10" depart="53" />
    <vehicle id="W1_RIGHT_136" type="SUMO_DEFAULT_TYPE" route="W1_RIGHT" departLane="0" departSpeed="10" depart="53" color="1,0,0" />
    <vehicle id="W7_STRAIGHT_137" type="SUMO_DEFAULT_TYPE" route="W7_STRAIGHT" departLane="random" departSpeed="10" depart="53" />
    <vehicle id="N5_LEFT_138" type="SUMO_DEFAULT_TYPE" route="N5_LEFT" departLane="1" departSpeed="10" depart="54" color="0,0,255"/>
    <vehicle id="N6_RIGHT_139" type="SUMO_DEFAULT_TYPE" route="N6_RIGHT" departLane="0" departSpeed="10" depart="54" />
    <vehicle id="W1_STRAIGHT_140" type="SUMO_DEFAULT_TYPE" route="W1_STRAIGHT" departLane="random" departSpeed="10" depart="54" />
    <vehicle id="N3_RIGHT_141" type="SUMO_DEFAULT_TYPE" route="N3_RIGHT" departLane="0" departSpeed="10" depart="56" />
    <vehicle id="E1_STRAIGHT_142" type="SUMO_DEFAULT_TYPE" route="E1_STRAIGHT" departLane="random" departSpeed="10" depart="56" />
    <vehicle id="S3_RIGHT_143" type="SUMO_DEFAULT_TYPE" route="S3_RIGHT" departLane="0" departSpeed="10" depart="57" />
    <vehicle id="S4_LEFT_144" type="SUMO_DEFAULT_TYPE" route="S4_LEFT" departLane="1" departSpeed="10" depart="58" color="0,0,255"/>
    <vehicle id="S6_RIGHT_145" type="SUMO_DEFAULT_TYPE" route="S6_RIGHT" departLane="0" departSpeed="10" depart="59" />
    <vehicle id="S1_RIGHT_146" type="SUMO_DEFAULT_TYPE" route="S1_RIGHT" departLane="0" departSpeed="10" depart="59" />
    <vehicle id="N5_LEFT_147" type="SUMO_DEFAULT_TYPE" route="N5_LEFT" departLane="1" departSpeed="10" depart="59" color="0,0,255"/>
    <vehicle id="E4_LEFT_148" type="SUMO_DEFAULT_TYPE" route="E4_LEFT" departLane="random" departSpeed="10" depart="60" color="1,0,0" />
    <vehicle id="W5_STRAIGHT_149" type="SUMO_DEFAULT_TYPE" route="W5_STRAIGHT" departLane="random" departSpeed="10" depart="60" />
    <vehicle id="S4_RIGHT_150" type="SUMO_DEFAULT_TYPE" route="S4_RIGHT" departLane="0" departSpeed="10" depart="61" />
    <vehicle id="S1_LEFT_151" type="SUMO_DEFAULT_TYPE" route="S1_LEFT" departLane="1" departSpeed="10" depart="61" color="0,0,255"/>
    <vehicle id="N1_STRAIGHT_152" type="SUMO_DEFAULT_TYPE" route="N1_STRAIGHT" departLane="free" departSpeed="10" depart="61" color="1,0,0"/>
    <vehicle id="S5_RIGHT_153" type="SUMO_DEFAULT_TYPE" route="S5_RIGHT" departLane="0" departSpeed="10" depart="62" />
    <vehicle id="S3_RIGHT_154" type="SUMO_DEFAULT_TYPE" route="S3_RIGHT" departLane="0" departSpeed="10" depart="62" />
    <vehicle id="N1_STRAIGHT_155" type="SUMO_DEFAULT_TYPE" route="N1_STRAIGHT" departLane="free" departSpeed="10" depart="63" color="1,0,0"/>
    <vehicle id="N3_RIGHT_156" type="SUMO_DEFAULT_TYPE" route="N3_RIGHT" departLane="0" departSpeed="10" depart="63" />
    <vehicle id="S7_RIGHT_157" type="SUMO_DEFAULT_TYPE" route="S7_RIGHT" departLane="0" departSpeed="10" depart="64" />
    <vehicle id="N3_LEFT_158" type="SUMO_DEFAULT_TYPE" route="N3_LEFT" departLane="1" departSpeed="10" depart="65" color="0,0,255"/>
    <vehicle id="E6_STRAIGHT_159" type="SUMO_DEFAULT_TYPE" route="E6_STRAIGHT" departLane="random" departSpeed="10" depart="65" />
    <vehicle id="S5_LEFT_160" type="SUMO_DEFAULT_TYPE" route="S5_LEFT" departLane="1" departSpeed="10" depart="66" color="0,0,255"/>
    <vehicle id="N3_RIGHT_161" type="SUMO_DEFAULT_TYPE" route="N3_RIGHT" departLane="0" departSpeed="10" depart="67" />
    <vehicle id="N5_RIGHT_162" type="SUMO_DEFAULT_TYPE" route="N5_RIGHT" departLane="0" departSpeed="10" depart="67" />
    <vehicle id="N6_RIGHT_163" type="SUMO_DEFAULT_TYPE" route="N6_RIGHT" departLane="0" departSpeed="10" depart="67" />
    <vehicle id="E1_STRAIGHT_164" type="SUMO_DEFAULT_TYPE" route="E1_STRAIGHT" departLane="random" departSpeed="10" depart="67" />
    <vehicle id="W4_RIGHT_165" type="SUMO_DEFAULT_TYPE" route="W4_RIGHT" departLane="0" departSpeed="10" depart="67" color="1,0,0" />
    <vehicle id="N5_RIGHT_166" type="SUMO_DEFAULT_TYPE" route="N5_RIGHT" departLane="0" departSpeed="10" depart="68" />
    <vehicle id="N6_LEFT_167" type="SUMO_DEFAULT_TYPE" route="N6_LEFT" departLane="1" departSpeed="10" depart="68" color="0,0,255"/>
    <vehicle id="E1_STRAIGHT_168" type="SUMO_DEFAULT_TYPE" route="E1_STRAIGHT" departLane="random" departSpeed="10" depart="68" />
    <vehicle id="W1_STRAIGHT_169" type="SUMO_DEFAULT_TYPE" route="W1_STRAIGHT" departLane="random" departSpeed="10" depart="68" />
    <vehicle id="S7_LEFT_170" type="SUMO_DEFAULT_TYPE" route="S7_LEFT" departLane="1" departSpeed="10" depart="69" color="0,0,255"/>
    <vehicle id="S2_RIGHT_171" type="SUMO_DEFAULT_TYPE" route="S2_RIGHT" departLane="0" departSpeed="10" depart="69" />
    <vehicle id="N1_LEFT_172" type="SUMO_DEFAULT_TYPE" route="N1_LEFT" departLane="1" departSpeed="10" depart="69" color="0,0,255"/>
    <vehicle id="E1_STRAIGHT_173" type="SUMO_DEFAULT_TYPE" route="E1_STRAIGHT" departLane="random" departSpeed="10" depart="69" />
    <vehicle id="W3_LEFT_174" type="SUMO_DEFAULT_TYPE" route="W3_LEFT" departLane="random" departSpeed="10" depart="69" color="1,0,0" />
    <vehicle id="E5_LEFT_175" type="SUMO_DEFAULT_TYPE" route="E5_LEFT" departLane="random" departSpeed="10" depart="72" color="1,0,0" />
    <vehicle id="N4_RIGHT_176" type="SUMO_DEFAULT_TYPE" route="N4_RIGHT" departLane="0" departSpeed="10" depart="73" />
    <vehicle id="W1_STRAIGHT_177" type="SUMO_DEFAULT_TYPE" route="W1_STRAIGHT" departLane="random" departSpeed="10" depart="73" />
    <vehicle id="N5_RIGHT_178" type="SUMO_DEFAULT_TYPE" route="N5_RIGHT" departLane="0" departSpeed="10" depart="74" />
    <vehicle id="W7_STRAIGHT_179" type="SUMO_DEFAULT_TYPE" route="W7_STRAIGHT" departLane="random" departSpeed="10" depart="74" />
    <vehicle id="S7_LEFT_180" type="SUMO_DEFAULT_TYPE" route="S7_LEFT" departLane="1" departSpeed="10" depart="75" color="0,0,255"/>
    <vehicle id="S7_RIGHT_181" type="SUMO_DEFAULT_TYPE" route="S7_RIGHT" departLane="0" departSpeed="10" depart="75" />
    <vehicle id="N3_LEFT_182" type="SUMO_DEFAULT_TYPE" route="N3_LEFT" departLane="1" departSpeed="10" depart="75" color="0,0,255"/>
    <vehicle id="E6_RIGHT_183" type="SUMO_DEFAULT_TYPE" route="E6_RIGHT" departLane="random" departSpeed="10" depart="77" color="1,0,0" />
    <vehicle id="W1_STRAIGHT_184" type="SUMO_DEFAULT_TYPE" route="W1_STRAIGHT" departLane="random" departSpeed="10" depart="77" />
    <vehicle id="S7_STRAIGHT_185" type="SUMO_DEFAULT_TYPE" route="S7_STRAIGHT" departLane="free" departSpeed="10" depart="78" color="1,0,0"/>
    <vehicle id="N1_RIGHT_186" type="SUMO_DEFAULT_TYPE" route="N1_RIGHT" departLane="0" departSpeed="10" depart="78" />
    <vehicle id="S3_LEFT_187" type="SUMO_DEFAULT_TYPE" route="S3_LEFT" departLane="1" departSpeed="10" depart="79" color="0,0,255"/>
    <vehicle id="N1_LEFT_188" type="SUMO_DEFAULT_TYPE" route="N1_LEFT" departLane="1" departSpeed="10" depart="79" color="0,0,255"/>
    <vehicle id="E6_LEFT_189" type="SUMO_DEFAULT_TYPE" route="E6_LEFT" departLane="random" departSpeed="10" depart="80" color="1,0,0" />
    <vehicle id="N1_STRAIGHT_190" type="SUMO_DEFAULT_TYPE" route="N1_STRAIGHT" departLane="free" departSpeed="10" depart="81" color="1,0,0"/>
    <vehicle id="N3_RIGHT_191" type="SUMO_DEFAULT_TYPE" route="N3_RIGHT" departLane="0" departSpeed="10" depart="81" />
    <vehicle id="N5_RIGHT_192" type="SUMO_DEFAULT_TYPE" route="N5_RIGHT" departLane="0" departSpeed="10" depart="81" />
    <vehicle id="E5_STRAIGHT_193" type="SUMO_DEFAULT_TYPE" route="E5_STRAIGHT" departLane="random" departSpeed="10" depart="82" />
    <vehicle id="W1_RIGHT_194" type="SUMO_DEFAULT_TYPE" route="W1_RIGHT" departLane="0" departSpeed="10" depart="82" color="1,0,0" />
    <vehicle id="N6_LEFT_195" type="SUMO_DEFAULT_TYPE" route="N6_LEFT" departLane="1" departSpeed="10" depart="83" color="0,0,255"/>